# generated using pymatgen
data_ZrZnN2
_symmetry_space_group_name_H-M   'P 1'
_cell_length_a   3.31133155
_cell_length_b   3.31133135
_cell_length_c   5.33678025
_cell_angle_alpha   90.00000000
_cell_angle_beta   90.00000000
_cell_angle_gamma   120.00000808
_symmetry_Int_Tables_number   1
_chemical_formula_structural   ZrZnN2
_chemical_formula_sum   'Zr1 Zn1 N2'
_cell_volume   50.67750495
_cell_formula_units_Z   1
loop_
 _symmetry_equiv_pos_site_id
 _symmetry_equiv_pos_as_xyz
  1  'x, y, z'
loop_
 _atom_site_type_symbol
 _atom_site_label
 _atom_site_symmetry_multiplicity
 _atom_site_fract_x
 _atom_site_fract_y
 _atom_site_fract_z
 _atom_site_occupancy
  Zr  Zr0  1  0.00000000  0.00000000  0.00288049  1
  Zn  Zn1  1  0.66666700  0.33333300  0.45038639  1
  N  N2  1  0.33333300  0.66666700  0.25957648  1
  N  N3  1  0.66666700  0.33333300  0.81712665  1
