# generated using pymatgen
data_AlSb
_symmetry_space_group_name_H-M   'P 1'
_cell_length_a   4.40064476
_cell_length_b   4.40020260
_cell_length_c   7.22063052
_cell_angle_alpha   90.00000000
_cell_angle_beta   90.00000000
_cell_angle_gamma   120.00332408
_symmetry_Int_Tables_number   1
_chemical_formula_structural   AlSb
_chemical_formula_sum   'Al2 Sb2'
_cell_volume   121.08216899
_cell_formula_units_Z   2
loop_
 _symmetry_equiv_pos_site_id
 _symmetry_equiv_pos_as_xyz
  1  'x, y, z'
loop_
 _atom_site_type_symbol
 _atom_site_label
 _atom_site_symmetry_multiplicity
 _atom_site_fract_x
 _atom_site_fract_y
 _atom_site_fract_z
 _atom_site_occupancy
  Al  Al0  1  0.66668061  0.33336122  0.49992088  1
  Al  Al1  1  0.33331939  0.66663878  0.99992088  1
  Sb  Sb2  1  0.66668263  0.33336525  0.87517912  1
  Sb  Sb3  1  0.33331737  0.66663475  0.37517912  1
