# generated using pymatgen
data_LiGe2N3
_symmetry_space_group_name_H-M   'P 1'
_cell_length_a   5.09919302
_cell_length_b   5.57033875
_cell_length_c   5.56215896
_cell_angle_alpha   120.04865951
_cell_angle_beta   90.00000000
_cell_angle_gamma   90.00000000
_symmetry_Int_Tables_number   1
_chemical_formula_structural   LiGe2N3
_chemical_formula_sum   'Li2 Ge4 N6'
_cell_volume   136.75522615
_cell_formula_units_Z   2
loop_
 _symmetry_equiv_pos_site_id
 _symmetry_equiv_pos_as_xyz
  1  'x, y, z'
loop_
 _atom_site_type_symbol
 _atom_site_label
 _atom_site_symmetry_multiplicity
 _atom_site_fract_x
 _atom_site_fract_y
 _atom_site_fract_z
 _atom_site_occupancy
  Li  Li0  1  0.49461204  0.34260272  -0.00000000  1
  Li  Li1  1  0.99461204  0.65739728  -0.00000000  1
  Ge  Ge2  1  0.49248505  0.67036612  0.67349464  1
  Ge  Ge3  1  0.49248505  0.99687147  0.32650536  1
  Ge  Ge4  1  0.99248505  0.32963388  0.32650536  1
  Ge  Ge5  1  0.99248505  0.00312853  0.67349464  1
  N  N6  1  0.12373599  0.66406456  0.62637167  1
  N  N7  1  0.12373599  0.03769290  0.37362833  1
  N  N8  1  0.62373599  0.33593544  0.37362833  1
  N  N9  1  0.62373599  0.96230710  0.62637167  1
  N  N10  1  0.09394588  0.29836290  -0.00000000  1
  N  N11  1  0.59394588  0.70163710  -0.00000000  1
