# generated using pymatgen
data_BaYCuTe3
_symmetry_space_group_name_H-M   'P 1'
_cell_length_a   4.44262708
_cell_length_b   7.81701913
_cell_length_c   11.44982601
_cell_angle_alpha   90.00000000
_cell_angle_beta   90.00000000
_cell_angle_gamma   106.50886893
_symmetry_Int_Tables_number   1
_chemical_formula_structural   BaYCuTe3
_chemical_formula_sum   'Ba2 Y2 Cu2 Te6'
_cell_volume   381.23868885
_cell_formula_units_Z   2
loop_
 _symmetry_equiv_pos_site_id
 _symmetry_equiv_pos_as_xyz
  1  'x, y, z'
loop_
 _atom_site_type_symbol
 _atom_site_label
 _atom_site_symmetry_multiplicity
 _atom_site_fract_x
 _atom_site_fract_y
 _atom_site_fract_z
 _atom_site_occupancy
  Cu  Cu0  1  0.46753423  0.93506846  0.75000000  1
  Cu  Cu1  1  0.53246577  0.06493154  0.25000000  1
  Y  Y2  1  0.00000000  0.00000000  0.50000000  1
  Y  Y3  1  0.00000000  0.00000000  0.00000000  1
  Te  Te4  1  0.36362324  0.72724649  0.93877569  1
  Te  Te5  1  0.92969551  0.85939103  0.25000000  1
  Te  Te6  1  0.63637676  0.27275351  0.43877569  1
  Te  Te7  1  0.63637676  0.27275351  0.06122431  1
  Te  Te8  1  0.36362324  0.72724649  0.56122431  1
  Te  Te9  1  0.07030449  0.14060897  0.75000000  1
  Ba  Ba10  1  0.24937916  0.49875831  0.25000000  1
  Ba  Ba11  1  0.75062084  0.50124169  0.75000000  1
