# generated using pymatgen
data_BP
_symmetry_space_group_name_H-M   'P 1'
_cell_length_a   3.20030528
_cell_length_b   3.20025702
_cell_length_c   5.29809314
_cell_angle_alpha   90.00000000
_cell_angle_beta   90.00000000
_cell_angle_gamma   120.00049881
_symmetry_Int_Tables_number   1
_chemical_formula_structural   BP
_chemical_formula_sum   'B2 P2'
_cell_volume   46.99204067
_cell_formula_units_Z   2
loop_
 _symmetry_equiv_pos_site_id
 _symmetry_equiv_pos_as_xyz
  1  'x, y, z'
loop_
 _atom_site_type_symbol
 _atom_site_label
 _atom_site_symmetry_multiplicity
 _atom_site_fract_x
 _atom_site_fract_y
 _atom_site_fract_z
 _atom_site_occupancy
  B  B0  1  0.66666931  0.33333862  0.50027359  1
  B  B1  1  0.33333069  0.66666138  0.00027359  1
  P  P2  1  0.66666502  0.33333004  0.87472641  1
  P  P3  1  0.33333498  0.66666996  0.37472641  1
