# generated using pymatgen
data_RbSbO2
_symmetry_space_group_name_H-M   'P 1'
_cell_length_a   5.67690971
_cell_length_b   6.20979967
_cell_length_c   6.20979967
_cell_angle_alpha   98.35084446
_cell_angle_beta   111.31072064
_cell_angle_gamma   111.31072065
_symmetry_Int_Tables_number   1
_chemical_formula_structural   RbSbO2
_chemical_formula_sum   'Rb2 Sb2 O4'
_cell_volume   180.03814886
_cell_formula_units_Z   2
loop_
 _symmetry_equiv_pos_site_id
 _symmetry_equiv_pos_as_xyz
  1  'x, y, z'
loop_
 _atom_site_type_symbol
 _atom_site_label
 _atom_site_symmetry_multiplicity
 _atom_site_fract_x
 _atom_site_fract_y
 _atom_site_fract_z
 _atom_site_occupancy
  O  O0  1  0.21243681  0.13014418  0.22424315  1
  O  O1  1  0.28756319  0.77575685  0.86985582  1
  O  O2  1  0.71243681  0.22424315  0.13014418  1
  O  O3  1  0.78756319  0.86985582  0.77575685  1
  Rb  Rb4  1  0.25000000  0.64284080  0.35715920  1
  Rb  Rb5  1  0.75000000  0.35715920  0.64284080  1
  Sb  Sb6  1  0.75000000  0.91514806  0.08485194  1
  Sb  Sb7  1  0.25000000  0.08485194  0.91514806  1
