# generated using pymatgen
data_SrMg2N2
_symmetry_space_group_name_H-M   'P 1'
_cell_length_a   3.64360653
_cell_length_b   3.64360654
_cell_length_c   6.39976329
_cell_angle_alpha   90.00000000
_cell_angle_beta   90.00000000
_cell_angle_gamma   120.00000004
_symmetry_Int_Tables_number   1
_chemical_formula_structural   SrMg2N2
_chemical_formula_sum   'Sr1 Mg2 N2'
_cell_volume   73.57961085
_cell_formula_units_Z   1
loop_
 _symmetry_equiv_pos_site_id
 _symmetry_equiv_pos_as_xyz
  1  'x, y, z'
loop_
 _atom_site_type_symbol
 _atom_site_label
 _atom_site_symmetry_multiplicity
 _atom_site_fract_x
 _atom_site_fract_y
 _atom_site_fract_z
 _atom_site_occupancy
  N  N0  1  0.33333333  0.66666667  0.22053691  1
  N  N1  1  0.66666667  0.33333333  0.77946309  1
  Mg  Mg2  1  0.33333333  0.66666667  0.86860431  1
  Mg  Mg3  1  0.66666667  0.33333333  0.13139569  1
  Sr  Sr4  1  0.00000000  0.00000000  0.50000000  1
