# generated using pymatgen
data_BAs
_symmetry_space_group_name_H-M   'P 1'
_cell_length_a   3.40772664
_cell_length_b   3.40772664
_cell_length_c   3.40772664
_cell_angle_alpha   60.00000001
_cell_angle_beta   60.00000001
_cell_angle_gamma   59.99999995
_symmetry_Int_Tables_number   1
_chemical_formula_structural   BAs
_chemical_formula_sum   'B1 As1'
_cell_volume   27.98203209
_cell_formula_units_Z   1
loop_
 _symmetry_equiv_pos_site_id
 _symmetry_equiv_pos_as_xyz
  1  'x, y, z'
loop_
 _atom_site_type_symbol
 _atom_site_label
 _atom_site_symmetry_multiplicity
 _atom_site_fract_x
 _atom_site_fract_y
 _atom_site_fract_z
 _atom_site_occupancy
  B  B0  1  0.25000000  0.25000000  0.25000000  1
  As  As1  1  0.00000000  0.00000000  0.00000000  1
