# generated using pymatgen
data_P2Ir
_symmetry_space_group_name_H-M   'P 1'
_cell_length_a   5.79539059
_cell_length_b   5.83771594
_cell_length_c   5.90072838
_cell_angle_alpha   90.00000000
_cell_angle_beta   111.30680367
_cell_angle_gamma   90.00000000
_symmetry_Int_Tables_number   1
_chemical_formula_structural   P2Ir
_chemical_formula_sum   'P8 Ir4'
_cell_volume   185.98725750
_cell_formula_units_Z   4
loop_
 _symmetry_equiv_pos_site_id
 _symmetry_equiv_pos_as_xyz
  1  'x, y, z'
loop_
 _atom_site_type_symbol
 _atom_site_label
 _atom_site_symmetry_multiplicity
 _atom_site_fract_x
 _atom_site_fract_y
 _atom_site_fract_z
 _atom_site_occupancy
  P  P0  1  0.15790117  0.88106963  0.87091136  1
  P  P1  1  0.84209883  0.38106963  0.62908864  1
  P  P2  1  0.84209883  0.11893037  0.12908864  1
  P  P3  1  0.15790117  0.61893037  0.37091136  1
  P  P4  1  0.33410581  0.37643392  0.18898974  1
  P  P5  1  0.66589419  0.87643392  0.31101026  1
  P  P6  1  0.66589419  0.62356608  0.81101026  1
  P  P7  1  0.33410581  0.12356608  0.68898974  1
  Ir  Ir8  1  0.27167619  0.49929226  0.79180115  1
  Ir  Ir9  1  0.72832381  0.99929226  0.70819885  1
  Ir  Ir10  1  0.72832381  0.50070774  0.20819885  1
  Ir  Ir11  1  0.27167619  0.00070774  0.29180115  1
