# generated using pymatgen
data_ZnS
_symmetry_space_group_name_H-M   'P 1'
_cell_length_a   3.85250299
_cell_length_b   3.85250299
_cell_length_c   12.60818078
_cell_angle_alpha   90.00000000
_cell_angle_beta   90.00000000
_cell_angle_gamma   120.00000005
_symmetry_Int_Tables_number   1
_chemical_formula_structural   ZnS
_chemical_formula_sum   'Zn4 S4'
_cell_volume   162.05746016
_cell_formula_units_Z   4
loop_
 _symmetry_equiv_pos_site_id
 _symmetry_equiv_pos_as_xyz
  1  'x, y, z'
loop_
 _atom_site_type_symbol
 _atom_site_label
 _atom_site_symmetry_multiplicity
 _atom_site_fract_x
 _atom_site_fract_y
 _atom_site_fract_z
 _atom_site_occupancy
  S  S0  1  0.66666667  0.33333333  0.93764058  1
  S  S1  1  0.33333333  0.66666667  0.43764058  1
  S  S2  1  0.00000000  0.00000000  0.68726528  1
  S  S3  1  0.00000000  0.00000000  0.18726528  1
  Zn  Zn4  1  0.66666667  0.33333333  0.75003024  1
  Zn  Zn5  1  0.33333333  0.66666667  0.25003024  1
  Zn  Zn6  1  0.00000000  0.00000000  0.50006389  1
  Zn  Zn7  1  0.00000000  0.00000000  0.00006389  1
