# generated using pymatgen
data_Ca(BC)2
_symmetry_space_group_name_H-M   'P 1'
_cell_length_a   5.31353359
_cell_length_b   5.31353359
_cell_length_c   5.31353359
_cell_angle_alpha   91.12884072
_cell_angle_beta   119.35041768
_cell_angle_gamma   119.35041768
_symmetry_Int_Tables_number   1
_chemical_formula_structural   Ca(BC)2
_chemical_formula_sum   'Ca2 B4 C4'
_cell_volume   107.09947932
_cell_formula_units_Z   2
loop_
 _symmetry_equiv_pos_site_id
 _symmetry_equiv_pos_as_xyz
  1  'x, y, z'
loop_
 _atom_site_type_symbol
 _atom_site_label
 _atom_site_symmetry_multiplicity
 _atom_site_fract_x
 _atom_site_fract_y
 _atom_site_fract_z
 _atom_site_occupancy
  B  B0  1  0.22213306  0.36106653  0.86106653  1
  B  B1  1  0.50000000  0.86106653  0.63893347  1
  B  B2  1  0.50000000  0.13893347  0.36106653  1
  B  B3  1  0.77786694  0.63893347  0.13893347  1
  C  C4  1  0.50000000  0.65930065  0.84069935  1
  C  C5  1  0.81860130  0.15930065  0.65930065  1
  C  C6  1  0.50000000  0.34069935  0.15930065  1
  C  C7  1  0.18139870  0.84069935  0.34069935  1
  Ca  Ca8  1  0.00000000  0.75000000  0.75000000  1
  Ca  Ca9  1  0.00000000  0.25000000  0.25000000  1
