# generated using pymatgen
data_SrGeTeO6
_symmetry_space_group_name_H-M   'P 1'
_cell_length_a   5.14922823
_cell_length_b   5.14922824
_cell_length_c   5.49371950
_cell_angle_alpha   90.00000000
_cell_angle_beta   90.00000000
_cell_angle_gamma   120.00000003
_symmetry_Int_Tables_number   1
_chemical_formula_structural   SrGeTeO6
_chemical_formula_sum   'Sr1 Ge1 Te1 O6'
_cell_volume   126.14829830
_cell_formula_units_Z   1
loop_
 _symmetry_equiv_pos_site_id
 _symmetry_equiv_pos_as_xyz
  1  'x, y, z'
loop_
 _atom_site_type_symbol
 _atom_site_label
 _atom_site_symmetry_multiplicity
 _atom_site_fract_x
 _atom_site_fract_y
 _atom_site_fract_z
 _atom_site_occupancy
  O  O0  1  0.38257257  0.37887655  0.69943434  1
  O  O1  1  0.62112345  0.00369602  0.69943434  1
  O  O2  1  0.99630398  0.61742743  0.69943434  1
  O  O3  1  0.38257257  0.00369602  0.30056566  1
  O  O4  1  0.99630398  0.37887655  0.30056566  1
  O  O5  1  0.62112345  0.61742743  0.30056566  1
  Ge  Ge6  1  0.66666667  0.33333333  0.50000000  1
  Sr  Sr7  1  0.00000000  0.00000000  0.00000000  1
  Te  Te8  1  0.33333333  0.66666667  0.50000000  1
