# generated using pymatgen
data_MgTe
_symmetry_space_group_name_H-M   'P 1'
_cell_length_a   4.61088090
_cell_length_b   4.61088090
_cell_length_c   7.50937539
_cell_angle_alpha   90.00000000
_cell_angle_beta   90.00000000
_cell_angle_gamma   120.00000002
_symmetry_Int_Tables_number   1
_chemical_formula_structural   MgTe
_chemical_formula_sum   'Mg2 Te2'
_cell_volume   138.26181551
_cell_formula_units_Z   2
loop_
 _symmetry_equiv_pos_site_id
 _symmetry_equiv_pos_as_xyz
  1  'x, y, z'
loop_
 _atom_site_type_symbol
 _atom_site_label
 _atom_site_symmetry_multiplicity
 _atom_site_fract_x
 _atom_site_fract_y
 _atom_site_fract_z
 _atom_site_occupancy
  Mg  Mg0  1  0.33333333  0.66666667  0.99689078  1
  Mg  Mg1  1  0.66666667  0.33333333  0.49689078  1
  Te  Te2  1  0.33333333  0.66666667  0.37310922  1
  Te  Te3  1  0.66666667  0.33333333  0.87310922  1
