# generated using pymatgen
data_K2CN2
_symmetry_space_group_name_H-M   'P 1'
_cell_length_a   4.09726652
_cell_length_b   4.09726652
_cell_length_c   5.91792993
_cell_angle_alpha   76.25821278
_cell_angle_beta   76.25821276
_cell_angle_gamma   89.51483112
_symmetry_Int_Tables_number   1
_chemical_formula_structural   K2CN2
_chemical_formula_sum   'K2 C1 N2'
_cell_volume   93.62058692
_cell_formula_units_Z   1
loop_
 _symmetry_equiv_pos_site_id
 _symmetry_equiv_pos_as_xyz
  1  'x, y, z'
loop_
 _atom_site_type_symbol
 _atom_site_label
 _atom_site_symmetry_multiplicity
 _atom_site_fract_x
 _atom_site_fract_y
 _atom_site_fract_z
 _atom_site_occupancy
  C  C0  1  0.00000000  0.00000000  0.00000000  1
  N  N1  1  0.84760994  0.84760994  0.20645253  1
  N  N2  1  0.15239006  0.15239006  0.79354747  1
  K  K3  1  0.67526553  0.67526553  0.70809327  1
  K  K4  1  0.32473447  0.32473447  0.29190673  1
