# generated using pymatgen
data_KSbO2
_symmetry_space_group_name_H-M   'P 1'
_cell_length_a   5.67969376
_cell_length_b   5.89129345
_cell_length_c   5.89129345
_cell_angle_alpha   94.86792721
_cell_angle_beta   112.85217465
_cell_angle_gamma   112.85217475
_symmetry_Int_Tables_number   1
_chemical_formula_structural   KSbO2
_chemical_formula_sum   'K2 Sb2 O4'
_cell_volume   160.82028503
_cell_formula_units_Z   2
loop_
 _symmetry_equiv_pos_site_id
 _symmetry_equiv_pos_as_xyz
  1  'x, y, z'
loop_
 _atom_site_type_symbol
 _atom_site_label
 _atom_site_symmetry_multiplicity
 _atom_site_fract_x
 _atom_site_fract_y
 _atom_site_fract_z
 _atom_site_occupancy
  O  O0  1  0.22028863  0.13136736  0.23392785  1
  O  O1  1  0.27971137  0.76607215  0.86863264  1
  O  O2  1  0.72028863  0.23392785  0.13136736  1
  O  O3  1  0.77971137  0.86863264  0.76607215  1
  K  K4  1  0.25000000  0.63663738  0.36336262  1
  K  K5  1  0.75000000  0.36336262  0.63663738  1
  Sb  Sb6  1  0.75000000  0.90695891  0.09304109  1
  Sb  Sb7  1  0.25000000  0.09304109  0.90695891  1
